
     RDKit          3D

 55 57  0  0  0  0  0  0  0  0999 V2000
   -6.0296    1.4430    0.4267 C   0  0  0  0  0  0  0  0  0  0  0  0
   -4.6942    1.0720    1.0445 C   0  0  0  0  0  0  0  0  0  0  0  0
   -4.1097   -0.1696    0.3950 N   0  0  0  0  0  4  0  0  0  0  0  0
   -4.9517   -1.4295    0.5415 C   0  0  0  0  0  0  0  0  0  0  0  0
   -5.1411   -1.8489    1.9874 C   0  0  0  0  0  0  0  0  0  0  0  0
   -2.6598   -0.4098    0.7927 C   0  0  0  0  0  0  0  0  0  0  0  0
   -1.6743    0.5309    0.0738 C   0  0  0  0  0  0  0  0  0  0  0  0
   -1.7173    0.3667   -1.4630 C   0  0  0  0  0  0  0  0  0  0  0  0
   -0.5815    1.1299   -2.1454 C   0  0  0  0  0  0  0  0  0  0  0  0
    0.6890    0.7294   -1.5669 N   0  0  0  0  0  0  0  0  0  0  0  0
    1.3939   -0.2958   -2.1961 C   0  0  0  0  0  0  0  0  0  0  0  0
    0.9825   -0.8610   -3.2038 O   0  0  0  0  0  0  0  0  0  0  0  0
    2.6803   -0.7441   -1.5962 C   0  0  1  0  0  0  0  0  0  0  0  0
    3.8781   -0.8590   -2.5118 C   0  0  0  0  0  0  0  0  0  0  0  0
    3.8590    0.2015   -1.4412 C   0  0  2  0  0  0  0  0  0  0  0  0
    4.8483    0.0749   -0.3026 C   0  0  0  0  0  0  0  0  0  0  0  0
    6.2106    0.3511   -0.5180 C   0  0  0  0  0  0  0  0  0  0  0  0
    7.1512    0.2560    0.5124 C   0  0  0  0  0  0  0  0  0  0  0  0
    6.7490   -0.1176    1.7917 C   0  0  0  0  0  0  0  0  0  0  0  0
    5.4075   -0.3900    2.0233 C   0  0  0  0  0  0  0  0  0  0  0  0
    4.9581   -0.7565    3.2585 O   0  0  0  0  0  0  0  0  0  0  0  0
    4.4698   -0.2967    0.9972 C   0  0  0  0  0  0  0  0  0  0  0  0
    0.8206    1.0375   -0.1519 C   0  0  0  0  0  0  0  0  0  0  0  0
   -0.2490    0.2656    0.6228 C   0  0  0  0  0  0  0  0  0  0  0  0
   -6.8083    0.7120    0.6647 H   0  0  0  0  0  0  0  0  0  0  0  0
   -5.9535    1.5294   -0.6625 H   0  0  0  0  0  0  0  0  0  0  0  0
   -6.3626    2.4100    0.8182 H   0  0  0  0  0  0  0  0  0  0  0  0
   -3.9886    1.8892    0.8730 H   0  0  0  0  0  0  0  0  0  0  0  0
   -4.7705    0.8977    2.1216 H   0  0  0  0  0  0  0  0  0  0  0  0
   -4.1145    0.0095   -0.6162 H   0  0  0  0  0  0  0  0  0  0  0  0
   -5.9120   -1.2425    0.0518 H   0  0  0  0  0  0  0  0  0  0  0  0
   -4.4449   -2.2150   -0.0298 H   0  0  0  0  0  0  0  0  0  0  0  0
   -4.1864   -2.0059    2.4968 H   0  0  0  0  0  0  0  0  0  0  0  0
   -5.6958   -2.7929    2.0246 H   0  0  0  0  0  0  0  0  0  0  0  0
   -5.7195   -1.1119    2.5516 H   0  0  0  0  0  0  0  0  0  0  0  0
   -2.4221   -1.4498    0.5406 H   0  0  0  0  0  0  0  0  0  0  0  0
   -2.6006   -0.2940    1.8807 H   0  0  0  0  0  0  0  0  0  0  0  0
   -1.9193    1.5740    0.3075 H   0  0  0  0  0  0  0  0  0  0  0  0
   -2.6681    0.7317   -1.8654 H   0  0  0  0  0  0  0  0  0  0  0  0
   -1.6432   -0.6985   -1.7170 H   0  0  0  0  0  0  0  0  0  0  0  0
   -0.5961    0.9465   -3.2252 H   0  0  0  0  0  0  0  0  0  0  0  0
   -0.6987    2.2097   -1.9958 H   0  0  0  0  0  0  0  0  0  0  0  0
    2.5653   -1.5623   -0.8934 H   0  0  0  0  0  0  0  0  0  0  0  0
    3.7738   -0.5390   -3.5433 H   0  0  0  0  0  0  0  0  0  0  0  0
    4.5200   -1.7243   -2.3890 H   0  0  0  0  0  0  0  0  0  0  0  0
    3.7008    1.2208   -1.7925 H   0  0  0  0  0  0  0  0  0  0  0  0
    6.5470    0.6442   -1.5115 H   0  0  0  0  0  0  0  0  0  0  0  0
    8.1975    0.4744    0.3108 H   0  0  0  0  0  0  0  0  0  0  0  0
    7.4878   -0.1880    2.5834 H   0  0  0  0  0  0  0  0  0  0  0  0
    5.7230   -0.8079    3.8576 H   0  0  0  0  0  0  0  0  0  0  0  0
    3.4346   -0.5263    1.2241 H   0  0  0  0  0  0  0  0  0  0  0  0
    0.6880    2.1178   -0.0233 H   0  0  0  0  0  0  0  0  0  0  0  0
    1.8077    0.7797    0.2274 H   0  0  0  0  0  0  0  0  0  0  0  0
   -0.2013    0.5398    1.6834 H   0  0  0  0  0  0  0  0  0  0  0  0
   -0.0292   -0.8082    0.5588 H   0  0  0  0  0  0  0  0  0  0  0  0
  1  2  1  0
  2  3  1  0
  3  4  1  0
  4  5  1  0
  3  6  1  0
  6  7  1  0
  7  8  1  0
  8  9  1  0
  9 10  1  0
 10 11  1  0
 11 12  2  0
 11 13  1  0
 13 14  1  0
 14 15  1  0
 15 16  1  0
 16 17  2  0
 17 18  1  0
 18 19  2  0
 19 20  1  0
 20 21  1  0
 20 22  2  0
 10 23  1  0
 23 24  1  0
 24  7  1  0
 15 13  1  0
 22 16  1  0
  1 25  1  0
  1 26  1  0
  1 27  1  0
  2 28  1  0
  2 29  1  0
  3 30  1  0
  4 31  1  0
  4 32  1  0
  5 33  1  0
  5 34  1  0
  5 35  1  0
  6 36  1  0
  6 37  1  0
  7 38  1  0
  8 39  1  0
  8 40  1  0
  9 41  1  0
  9 42  1  0
 13 43  1  1
 14 44  1  0
 14 45  1  0
 15 46  1  6
 17 47  1  0
 18 48  1  0
 19 49  1  0
 21 50  1  0
 22 51  1  0
 23 52  1  0
 23 53  1  0
 24 54  1  0
 24 55  1  0
M  CHG  1   3   1
M  END
$$$$
