
     RDKit          3D

 39 41  0  0  0  0  0  0  0  0999 V2000
   -2.3038    3.1752    2.7480 N   0  0  0  0  0  0  0  0  0  0  0  0
   -2.8590    2.4253    2.0567 C   0  0  0  0  0  0  0  0  0  0  0  0
   -3.6620    1.5776    1.2400 C   0  0  0  0  0  0  0  0  0  0  0  0
   -5.0145    1.8357    1.1241 C   0  0  0  0  0  0  0  0  0  0  0  0
   -5.8717    1.0774    0.4120 N   0  0  0  0  0  0  0  0  0  0  0  0
   -5.3202    0.0180   -0.1903 C   0  0  0  0  0  0  0  0  0  0  0  0
   -4.0258   -0.3302   -0.1454 N   0  0  0  0  0  0  0  0  0  0  0  0
   -3.1863    0.4595    0.5667 C   0  0  0  0  0  0  0  0  0  0  0  0
   -1.8120    0.1243    0.6089 N   0  0  0  0  0  0  0  0  0  0  0  0
   -1.0737    0.8671   -0.4372 C   0  0  0  0  0  0  0  0  0  0  0  0
    0.4225    0.5601   -0.3655 C   0  0  0  0  0  0  0  0  0  0  0  0
    0.6891   -0.9529   -0.4531 C   0  0  0  0  0  0  0  0  0  0  0  0
    2.1794   -1.3217   -0.3795 C   0  0  1  0  0  0  0  0  0  0  0  0
    2.9717   -0.9946   -1.6356 C   0  0  0  0  0  0  0  0  0  0  0  0
    4.3687   -0.8162   -1.0932 C   0  0  0  0  0  0  0  0  0  0  0  0
    4.1301   -0.1870    0.2682 C   0  0  1  0  0  0  0  0  0  0  0  0
    4.1565    1.3729    0.2212 C   0  0  0  0  0  0  0  0  0  0  0  0
    3.5778    1.9165   -0.7664 O   0  0  0  0  0  0  0  0  0  0  0  0
    4.8026    1.9238    1.1619 O   0  0  0  0  0  1  0  0  0  0  0  0
    2.8325   -0.6768    0.7206 O   0  0  0  0  0  0  0  0  0  0  0  0
   -0.1014   -1.6403    0.6737 C   0  0  0  0  0  0  0  0  0  0  0  0
   -1.5921   -1.3300    0.5416 C   0  0  0  0  0  0  0  0  0  0  0  0
   -5.4695    2.6883    1.6233 H   0  0  0  0  0  0  0  0  0  0  0  0
   -5.9786   -0.6197   -0.7695 H   0  0  0  0  0  0  0  0  0  0  0  0
   -1.4532    0.5999   -1.4331 H   0  0  0  0  0  0  0  0  0  0  0  0
   -1.2086    1.9485   -0.3137 H   0  0  0  0  0  0  0  0  0  0  0  0
    0.9251    1.0871   -1.1827 H   0  0  0  0  0  0  0  0  0  0  0  0
    0.8231    0.9612    0.5740 H   0  0  0  0  0  0  0  0  0  0  0  0
    0.2995   -1.3249   -1.4109 H   0  0  0  0  0  0  0  0  0  0  0  0
    2.2698   -2.4011   -0.1988 H   0  0  0  0  0  0  0  0  0  0  0  0
    2.9060   -1.7885   -2.3860 H   0  0  0  0  0  0  0  0  0  0  0  0
    2.6273   -0.0713   -2.1105 H   0  0  0  0  0  0  0  0  0  0  0  0
    5.0109   -0.2249   -1.7524 H   0  0  0  0  0  0  0  0  0  0  0  0
    4.8349   -1.8009   -0.9654 H   0  0  0  0  0  0  0  0  0  0  0  0
    4.8834   -0.5291    0.9869 H   0  0  0  0  0  0  0  0  0  0  0  0
    0.2634   -1.3056    1.6532 H   0  0  0  0  0  0  0  0  0  0  0  0
    0.0431   -2.7261    0.6272 H   0  0  0  0  0  0  0  0  0  0  0  0
   -1.9600   -1.7495   -0.4044 H   0  0  0  0  0  0  0  0  0  0  0  0
   -2.1250   -1.8269    1.3622 H   0  0  0  0  0  0  0  0  0  0  0  0
  1  2  3  0
  2  3  1  0
  3  4  2  0
  4  5  1  0
  5  6  2  0
  6  7  1  0
  7  8  2  0
  8  9  1  0
  9 10  1  0
 10 11  1  0
 11 12  1  0
 12 13  1  0
 13 14  1  0
 14 15  1  0
 15 16  1  0
 16 17  1  0
 17 18  2  0
 17 19  1  0
 16 20  1  0
 12 21  1  0
 21 22  1  0
  8  3  1  0
 22  9  1  0
 20 13  1  0
  4 23  1  0
  6 24  1  0
 10 25  1  0
 10 26  1  0
 11 27  1  0
 11 28  1  0
 12 29  1  0
 13 30  1  1
 14 31  1  0
 14 32  1  0
 15 33  1  0
 15 34  1  0
 16 35  1  1
 21 36  1  0
 21 37  1  0
 22 38  1  0
 22 39  1  0
M  CHG  1  19  -1
M  END
$$$$
 8.1975    0.4744    0.3108 H   0  0  0  0  0  0  0  0  0  0  0  0
    7.4878   -0.1880    2.5834 H   0  0  0  0  0  0  0  0  0  0  0  0
    5.7230   -0.8079    3.8576 H   0  0  0  0  0  0  0  0  0  0  0  0
    3.4346   -0.5263    1.2241 H   0  0  0  0  0  0  0  0  0  0  0  0
    0.6880    2.1178   -0.0233 H   0  0  0  0  0  0  0  0  0  0  0  0
    1.8077    0.7797    0.2274 H   0  0  0  0  0  0  0  0  0  0  0  0
   -0.2013    0.5398    1.6834 H   0  0  0  0  0  0  0  0  0  0  0  0
   -0.0292   -0.8082    0.5588 H   0  0  0  0  0  0  0  0  0  0  0  0
  1  2  1  0
  2  3  1  0
  3  4  1  0
  4  5  1  0
  3  6  1  0
  6  7  1  0
  7  8  1  0
  8  9  1  0
  9 10  1  0
 10 11  1  0
 11 12  2  0
 11 13  1  0
 13 14  1  0
 14 15  1  0
 15 16  1  0
 16 17  2  0
 17 18  1  0
 18 19  2  0
 19 20  1  0
 20 21  1  0
 20 22  2  0
 10 23  1  0
 23 24  1  0
 24  7  1  0
 15 13  1  0
 22 16  1  0
  1 25  1  0
  1 26  1  0
  1 27  1  0
  2 28  1  0
  2 29  1  0
  3 30  1  0
  4 31  1  0
  4 32  1  0
  5 33  1  0
  5 34  1  0
  5 35  1  0
  6 36  1  0
  6 37  1  0
  7 38  1  0
  8 39  1  0
  8 40  1  0
  9 41  1  0
  9 42  1  0
 13 43  1  1
 14 44  1  0
 14 45  1  0
 15 46  1  6
 17 47  1  0
 18 48  1  0
 19 49  1  0
 21 50  1  0
 22 51  1  0
 23 52  1  0
 23 53  1  0
 24 54  1  0
 24 55  1  0
M  CHG  1   3   1
M  END
$$$$
